
     RDKit          3D

 13 13  0  0  0  0  0  0  0  0999 V2000
   -7.0790   11.3708   10.9948 C   0  0  0  0  0  0  0  0  0  0  0  0
   -8.2537   11.1970   11.8958 C   0  0  1  0  0  0  0  0  0  0  0  0
   -7.9692   10.5180   13.1896 C   0  0  0  0  0  0  0  0  0  0  0  0
   -6.5509   10.5044   13.5790 C   0  0  0  0  0  0  0  0  0  0  0  0
   -5.6225   10.4245   12.6924 N   0  0  0  0  0  0  0  0  0  0  0  0
   -6.0240   10.3482   11.2948 C   0  0  2  0  0  0  0  0  0  0  0  0
   -4.8600   10.4626   10.3944 C   0  0  0  0  0  0  0  0  0  0  0  0
   -4.6969    9.6239    9.4935 O   0  0  0  0  0  0  0  0  0  0  0  0
   -3.9781   11.5151   10.5877 O   0  0  0  0  0  0  0  0  0  0  0  0
   -6.1988   10.5821   14.9828 C   0  0  0  0  0  0  0  0  0  0  0  0
   -6.9897   11.1361   15.7855 O   0  0  0  0  0  0  0  0  0  0  0  0
   -4.9992   10.0554   15.4675 O   0  0  0  0  0  0  0  0  0  0  0  0
   -8.8502   12.4598   12.1201 O   0  0  0  0  0  0  0  0  0  0  0  0
  1  2  1  0
  2  3  1  0
  3  4  1  0
  4  5  2  0
  5  6  1  0
  6  7  1  6
  7  8  2  0
  7  9  1  0
  4 10  1  0
 10 11  2  0
 10 12  1  0
  2 13  1  1
  6  1  1  0
M  END
$$$$
