53323638
 OpenBabel01132600103D

 16 16  0  0  1  0  0  0  0  0999 V2000
    9.7540   -5.6040    9.1940 N   0  0  0  0  0  0  0  0  0  0  0  0
   11.6210   -4.2690   10.9470 C   0  0  1  0  0  3  0  0  0  0  0  0
   10.8350   -5.4630   11.4700 C   0  0  0  0  0  2  0  0  0  0  0  0
    9.6020   -5.7870   10.6330 C   0  0  1  0  0  3  0  0  0  0  0  0
   11.9510   -4.4560    9.4770 C   0  0  0  0  0  2  0  0  0  0  0  0
   10.7820   -5.0080    8.7120 C   0  0  0  0  0  0  0  0  0  0  0  0
   10.8990   -3.0570   11.1470 O   0  0  0  0  0  0  0  0  0  0  0  0
   11.5440   -2.3600   11.3550 H   0  0  0  0  0  0  0  0  0  0  0  0
    7.7270   -5.1910   12.0350 O   0  0  0  0  0  0  0  0  0  0  0  0
    8.4180   -4.9710   11.0510 C   0  0  0  0  0  0  0  0  0  0  0  0
    8.2100   -3.9510   10.1850 O   0  0  0  0  0  0  0  0  0  0  0  0
    7.2620   -3.8570    9.9490 H   0  0  0  0  0  0  0  0  0  0  0  0
   11.5030   -5.6580    6.5550 O   0  0  0  0  0  0  0  0  0  0  0  0
   10.8490   -4.8940    7.2290 C   0  0  0  0  0  0  0  0  0  0  0  0
   10.0960   -3.8610    6.8370 O   0  0  0  0  0  0  0  0  0  0  0  0
    9.2260   -3.8410    7.2910 H   0  0  0  0  0  0  0  0  0  0  0  0
  1  4  1  0  0  0  0
  2  7  1  6  0  0  0
  2  3  1  0  0  0  0
  4 10  1  1  0  0  0
  4  3  1  0  0  0  0
  5  2  1  0  0  0  0
  6  1  2  0  0  0  0
  6  5  1  0  0  0  0
  7  8  1  0  0  0  0
 10  9  2  0  0  0  0
 11 10  1  0  0  0  0
 12 11  1  0  0  0  0
 13 14  2  0  0  0  0
 14  6  1  0  0  0  0
 15 14  1  0  0  0  0
 15 16  1  0  0  0  0
M  END
>  <MODEL>
1

>  <REMARK>
 VINA RESULT:    -5.338      0.000      0.000
 INTER + INTRA:          -6.666
 INTER:                  -6.430
 INTRA:                  -0.236
 UNBOUND:                -0.236
  Name = 53323638
  5 active torsions:
  status: ('A' for Active; 'I' for Inactive)
    1  A    between atoms: O_1  and  C_7
    2  A    between atoms: O_2  and  C_12
    3  A    between atoms: O_4  and  C_13
    4  A    between atoms: CA_9  and  C_12
    5  A    between atoms: CA_11  and  C_13
                            x       y       z     vdW  Elec       q    Type
                         _______ _______ _______ _____ _____    ______ ____

>  <TORSDO>
F 5

$$$$
53323638
 OpenBabel01132600103D

 16 16  0  0  1  0  0  0  0  0999 V2000
    9.7430   -6.8540   11.7850 N   0  0  0  0  0  0  0  0  0  0  0  0
    9.1480   -4.2790   10.6200 C   0  0  1  0  0  3  0  0  0  0  0  0
    9.4100   -4.3740   12.1170 C   0  0  0  0  0  2  0  0  0  0  0  0
    9.2700   -5.7910   12.6640 C   0  0  1  0  0  3  0  0  0  0  0  0
   10.0080   -5.2790    9.8680 C   0  0  0  0  0  2  0  0  0  0  0  0
   10.0480   -6.6100   10.5630 C   0  0  0  0  0  0  0  0  0  0  0  0
    7.7700   -4.4880   10.3300 O   0  0  0  0  0  0  0  0  0  0  0  0
    7.5000   -3.8190    9.6790 H   0  0  0  0  0  0  0  0  0  0  0  0
    6.9590   -5.2910   13.1600 O   0  0  0  0  0  0  0  0  0  0  0  0
    7.8490   -6.1150   13.0090 C   0  0  0  0  0  0  0  0  0  0  0  0
    7.6800   -7.4530   13.1350 O   0  0  0  0  0  0  0  0  0  0  0  0
    8.1590   -7.9510   12.4380 H   0  0  0  0  0  0  0  0  0  0  0  0
   10.0300   -8.8570    9.8240 O   0  0  0  0  0  0  0  0  0  0  0  0
   10.5410   -7.7610    9.7590 C   0  0  0  0  0  0  0  0  0  0  0  0
   11.5760   -7.3600    9.0130 O   0  0  0  0  0  0  0  0  0  0  0  0
   11.5000   -6.4200    8.7460 H   0  0  0  0  0  0  0  0  0  0  0  0
  1  4  1  0  0  0  0
  2  7  1  1  0  0  0
  2  3  1  0  0  0  0
  3  4  1  0  0  0  0
  4 10  1  6  0  0  0
  5  6  1  0  0  0  0
  5  2  1  0  0  0  0
  6  1  2  0  0  0  0
  8  7  1  0  0  0  0
 10 11  1  0  0  0  0
 10  9  2  0  0  0  0
 12 11  1  0  0  0  0
 14 13  2  0  0  0  0
 14  6  1  0  0  0  0
 15 14  1  0  0  0  0
 16 15  1  0  0  0  0
M  END
>  <MODEL>
2

>  <REMARK>
 VINA RESULT:    -5.135      2.388      3.181
 INTER + INTRA:          -6.421
 INTER:                  -6.054
 INTRA:                  -0.367
 UNBOUND:                -0.236
  Name = 53323638
  5 active torsions:
  status: ('A' for Active; 'I' for Inactive)
    1  A    between atoms: O_1  and  C_7
    2  A    between atoms: O_2  and  C_12
    3  A    between atoms: O_4  and  C_13
    4  A    between atoms: CA_9  and  C_12
    5  A    between atoms: CA_11  and  C_13
                            x       y       z     vdW  Elec       q    Type
                         _______ _______ _______ _____ _____    ______ ____

>  <TORSDO>
F 5

$$$$
53323638
 OpenBabel01132600103D

 16 16  0  0  1  0  0  0  0  0999 V2000
   -2.6540   12.9090   -2.1170 N   0  0  0  0  0  0  0  0  0  0  0  0
   -5.5290   12.9470   -1.8460 C   0  0  1  0  0  3  0  0  0  0  0  0
   -4.6840   12.3640   -0.7200 C   0  0  0  0  0  2  0  0  0  0  0  0
   -3.2690   12.0000   -1.1560 C   0  0  1  0  0  3  0  0  0  0  0  0
   -4.8070   14.1100   -2.5010 C   0  0  0  0  0  2  0  0  0  0  0  0
   -3.3480   13.8150   -2.7020 C   0  0  0  0  0  0  0  0  0  0  0  0
   -5.8480   11.9490   -2.8110 O   0  0  0  0  0  0  0  0  0  0  0  0
   -5.1030   11.8920   -3.4330 H   0  0  0  0  0  0  0  0  0  0  0  0
   -3.4450   10.3640   -2.9250 O   0  0  0  0  0  0  0  0  0  0  0  0
   -3.2080   10.6300   -1.7550 C   0  0  0  0  0  0  0  0  0  0  0  0
   -2.8540    9.7140   -0.8220 O   0  0  0  0  0  0  0  0  0  0  0  0
   -3.1180    9.9900    0.0820 H   0  0  0  0  0  0  0  0  0  0  0  0
   -1.4750   15.0520   -3.4500 O   0  0  0  0  0  0  0  0  0  0  0  0
   -2.6170   14.7030   -3.6470 C   0  0  0  0  0  0  0  0  0  0  0  0
   -3.4220   15.0030   -4.6730 O   0  0  0  0  0  0  0  0  0  0  0  0
   -3.1390   14.5710   -5.5070 H   0  0  0  0  0  0  0  0  0  0  0  0
  1  4  1  0  0  0  0
  2  7  1  6  0  0  0
  2  3  1  0  0  0  0
  4 10  1  6  0  0  0
  4  3  1  0  0  0  0
  5  2  1  0  0  0  0
  6  5  1  0  0  0  0
  6  1  2  0  0  0  0
  8  7  1  0  0  0  0
  9 10  2  0  0  0  0
 10 11  1  0  0  0  0
 11 12  1  0  0  0  0
 14 13  2  0  0  0  0
 14  6  1  0  0  0  0
 15 14  1  0  0  0  0
 16 15  1  0  0  0  0
M  END
>  <MODEL>
3

>  <REMARK>
 VINA RESULT:    -5.119     24.436     25.535
 INTER + INTRA:          -6.401
 INTER:                  -6.034
 INTRA:                  -0.368
 UNBOUND:                -0.236
  Name = 53323638
  5 active torsions:
  status: ('A' for Active; 'I' for Inactive)
    1  A    between atoms: O_1  and  C_7
    2  A    between atoms: O_2  and  C_12
    3  A    between atoms: O_4  and  C_13
    4  A    between atoms: CA_9  and  C_12
    5  A    between atoms: CA_11  and  C_13
                            x       y       z     vdW  Elec       q    Type
                         _______ _______ _______ _____ _____    ______ ____

>  <TORSDO>
F 5

$$$$
53323638
 OpenBabel01132600103D

 16 16  0  0  1  0  0  0  0  0999 V2000
    4.6020    2.3090  -11.5150 N   0  0  0  0  0  0  0  0  0  0  0  0
    5.8150    3.5340  -13.8320 C   0  0  1  0  0  3  0  0  0  0  0  0
    6.3990    3.8120  -12.4540 C   0  0  0  0  0  2  0  0  0  0  0  0
    5.4380    3.4880  -11.3150 C   0  0  1  0  0  3  0  0  0  0  0  0
    5.2870    2.1130  -13.9060 C   0  0  0  0  0  2  0  0  0  0  0  0
    4.5410    1.7330  -12.6590 C   0  0  0  0  0  0  0  0  0  0  0  0
    4.7850    4.4670  -14.1450 O   0  0  0  0  0  0  0  0  0  0  0  0
    5.0710    5.3400  -13.8260 H   0  0  0  0  0  0  0  0  0  0  0  0
    4.7370    5.8000  -11.3030 O   0  0  0  0  0  0  0  0  0  0  0  0
    4.5140    4.6300  -11.0260 C   0  0  0  0  0  0  0  0  0  0  0  0
    3.3900    4.1920  -10.4100 O   0  0  0  0  0  0  0  0  0  0  0  0
    3.2400    3.2340  -10.5570 H   0  0  0  0  0  0  0  0  0  0  0  0
    3.3920    0.0150  -13.8090 O   0  0  0  0  0  0  0  0  0  0  0  0
    3.6760    0.5250  -12.7480 C   0  0  0  0  0  0  0  0  0  0  0  0
    3.3140    0.1560  -11.5150 O   0  0  0  0  0  0  0  0  0  0  0  0
    2.6050   -0.5210  -11.5220 H   0  0  0  0  0  0  0  0  0  0  0  0
  1  4  1  0  0  0  0
  2  7  1  1  0  0  0
  2  3  1  0  0  0  0
  3  4  1  0  0  0  0
  4 10  1  6  0  0  0
  5  2  1  0  0  0  0
  5  6  1  0  0  0  0
  6  1  2  0  0  0  0
  7  8  1  0  0  0  0
  9 10  2  0  0  0  0
 10 11  1  0  0  0  0
 12 11  1  0  0  0  0
 13 14  2  0  0  0  0
 14  6  1  0  0  0  0
 14 15  1  0  0  0  0
 16 15  1  0  0  0  0
M  END
>  <MODEL>
4

>  <REMARK>
 VINA RESULT:    -4.958     23.045     24.136
 INTER + INTRA:          -6.208
 INTER:                  -5.844
 INTRA:                  -0.364
 UNBOUND:                -0.236
  Name = 53323638
  5 active torsions:
  status: ('A' for Active; 'I' for Inactive)
    1  A    between atoms: O_1  and  C_7
    2  A    between atoms: O_2  and  C_12
    3  A    between atoms: O_4  and  C_13
    4  A    between atoms: CA_9  and  C_12
    5  A    between atoms: CA_11  and  C_13
                            x       y       z     vdW  Elec       q    Type
                         _______ _______ _______ _____ _____    ______ ____

>  <TORSDO>
F 5

$$$$
53323638
 OpenBabel01132600103D

 16 16  0  0  1  0  0  0  0  0999 V2000
   11.1000   -5.1180   10.5110 N   0  0  0  0  0  0  0  0  0  0  0  0
   11.0160   -5.6690    7.6770 C   0  0  1  0  0  3  0  0  0  0  0  0
   12.2370   -6.0940    8.4800 C   0  0  0  0  0  2  0  0  0  0  0  0
   12.3590   -5.3750    9.8200 C   0  0  1  0  0  3  0  0  0  0  0  0
    9.7590   -5.7950    8.5190 C   0  0  0  0  0  2  0  0  0  0  0  0
    9.9770   -5.2960    9.9190 C   0  0  0  0  0  0  0  0  0  0  0  0
   11.1620   -4.3360    7.1960 O   0  0  0  0  0  0  0  0  0  0  0  0
   10.7430   -3.7420    7.8410 H   0  0  0  0  0  0  0  0  0  0  0  0
   12.9510   -3.1220   10.4630 O   0  0  0  0  0  0  0  0  0  0  0  0
   13.0530   -4.0550    9.6800 C   0  0  0  0  0  0  0  0  0  0  0  0
   13.8150   -4.0320    8.5600 O   0  0  0  0  0  0  0  0  0  0  0  0
   14.0460   -3.1170    8.2930 H   0  0  0  0  0  0  0  0  0  0  0  0
    8.4280   -5.7260   11.6550 O   0  0  0  0  0  0  0  0  0  0  0  0
    8.7530   -5.0260   10.7230 C   0  0  0  0  0  0  0  0  0  0  0  0
    8.1460   -3.9370   10.2380 O   0  0  0  0  0  0  0  0  0  0  0  0
    7.2660   -4.1410    9.8560 H   0  0  0  0  0  0  0  0  0  0  0  0
  2  7  1  1  0  0  0
  2  3  1  0  0  0  0
  2  5  1  0  0  0  0
  3  4  1  0  0  0  0
  4 10  1  6  0  0  0
  4  1  1  0  0  0  0
  5  6  1  0  0  0  0
  6  1  2  0  0  0  0
  6 14  1  0  0  0  0
  7  8  1  0  0  0  0
 10  9  2  0  0  0  0
 11 10  1  0  0  0  0
 12 11  1  0  0  0  0
 14 13  2  0  0  0  0
 15 14  1  0  0  0  0
 16 15  1  0  0  0  0
M  END
>  <MODEL>
5

>  <REMARK>
 VINA RESULT:    -4.877      1.580      4.145
 INTER + INTRA:          -6.110
 INTER:                  -5.778
 INTRA:                  -0.332
 UNBOUND:                -0.236
  Name = 53323638
  5 active torsions:
  status: ('A' for Active; 'I' for Inactive)
    1  A    between atoms: O_1  and  C_7
    2  A    between atoms: O_2  and  C_12
    3  A    between atoms: O_4  and  C_13
    4  A    between atoms: CA_9  and  C_12
    5  A    between atoms: CA_11  and  C_13
                            x       y       z     vdW  Elec       q    Type
                         _______ _______ _______ _____ _____    ______ ____

>  <TORSDO>
F 5

$$$$
53323638
 OpenBabel01132600103D

 16 16  0  0  1  0  0  0  0  0999 V2000
   10.9610   -6.3590    9.3370 N   0  0  0  0  0  0  0  0  0  0  0  0
    9.5460   -4.3940   10.9110 C   0  0  1  0  0  3  0  0  0  0  0  0
   10.4360   -5.4090   11.6160 C   0  0  0  0  0  2  0  0  0  0  0  0
   10.7570   -6.6270   10.7570 C   0  0  1  0  0  3  0  0  0  0  0  0
   10.1390   -4.0140    9.5660 C   0  0  0  0  0  2  0  0  0  0  0  0
   10.6720   -5.2150    8.8370 C   0  0  0  0  0  0  0  0  0  0  0  0
    8.2250   -4.9000   10.7500 O   0  0  0  0  0  0  0  0  0  0  0  0
    8.0750   -5.0350    9.7990 H   0  0  0  0  0  0  0  0  0  0  0  0
    9.5270   -8.5840   10.0550 O   0  0  0  0  0  0  0  0  0  0  0  0
    9.6880   -7.6710   10.8510 C   0  0  0  0  0  0  0  0  0  0  0  0
    8.9140   -7.4660   11.9440 O   0  0  0  0  0  0  0  0  0  0  0  0
    8.6390   -8.3090   12.3630 H   0  0  0  0  0  0  0  0  0  0  0  0
   11.6920   -5.7670    6.7750 O   0  0  0  0  0  0  0  0  0  0  0  0
   10.9380   -5.0400    7.3830 C   0  0  0  0  0  0  0  0  0  0  0  0
   10.2270   -4.0010    6.9310 O   0  0  0  0  0  0  0  0  0  0  0  0
   10.6880   -3.5170    6.2140 H   0  0  0  0  0  0  0  0  0  0  0  0
  1  4  1  0  0  0  0
  2  7  1  6  0  0  0
  2  3  1  0  0  0  0
  4 10  1  6  0  0  0
  4  3  1  0  0  0  0
  5  2  1  0  0  0  0
  6  1  2  0  0  0  0
  6  5  1  0  0  0  0
  8  7  1  0  0  0  0
  9 10  2  0  0  0  0
 10 11  1  0  0  0  0
 11 12  1  0  0  0  0
 13 14  2  0  0  0  0
 14  6  1  0  0  0  0
 15 14  1  0  0  0  0
 16 15  1  0  0  0  0
M  END
>  <MODEL>
6

>  <REMARK>
 VINA RESULT:    -4.873      1.715      2.264
 INTER + INTRA:          -6.105
 INTER:                  -5.792
 INTRA:                  -0.313
 UNBOUND:                -0.236
  Name = 53323638
  5 active torsions:
  status: ('A' for Active; 'I' for Inactive)
    1  A    between atoms: O_1  and  C_7
    2  A    between atoms: O_2  and  C_12
    3  A    between atoms: O_4  and  C_13
    4  A    between atoms: CA_9  and  C_12
    5  A    between atoms: CA_11  and  C_13
                            x       y       z     vdW  Elec       q    Type
                         _______ _______ _______ _____ _____    ______ ____

>  <TORSDO>
F 5

$$$$
53323638
 OpenBabel01132600103D

 16 16  0  0  1  0  0  0  0  0999 V2000
  -17.2970    1.5010    6.1420 N   0  0  0  0  0  0  0  0  0  0  0  0
  -15.5570   -0.5670    7.1590 C   0  0  1  0  0  3  0  0  0  0  0  0
  -15.6970   -0.3880    5.6540 C   0  0  0  0  0  2  0  0  0  0  0  0
  -16.9390    0.4010    5.2530 C   0  0  1  0  0  3  0  0  0  0  0  0
  -15.6410    0.7770    7.8610 C   0  0  0  0  0  2  0  0  0  0  0  0
  -16.7260    1.6380    7.2820 C   0  0  0  0  0  0  0  0  0  0  0  0
  -16.5500   -1.4550    7.6610 O   0  0  0  0  0  0  0  0  0  0  0  0
  -16.6430   -2.1840    7.0230 H   0  0  0  0  0  0  0  0  0  0  0  0
  -18.7850   -0.9120    6.0920 O   0  0  0  0  0  0  0  0  0  0  0  0
  -18.1450   -0.4790    5.1450 C   0  0  0  0  0  0  0  0  0  0  0  0
  -18.4350   -0.7360    3.8470 O   0  0  0  0  0  0  0  0  0  0  0  0
  -19.0340   -0.0610    3.4640 H   0  0  0  0  0  0  0  0  0  0  0  0
  -18.0150    2.7210    8.9440 O   0  0  0  0  0  0  0  0  0  0  0  0
  -17.1510    2.8070    8.1000 C   0  0  0  0  0  0  0  0  0  0  0  0
  -16.4330    3.8760    7.7390 O   0  0  0  0  0  0  0  0  0  0  0  0
  -15.9280    3.7230    6.9120 H   0  0  0  0  0  0  0  0  0  0  0  0
  1  6  2  0  0  0  0
  2  7  1  1  0  0  0
  2  5  1  0  0  0  0
  3  2  1  0  0  0  0
  4 10  1  1  0  0  0
  4  3  1  0  0  0  0
  4  1  1  0  0  0  0
  6  5  1  0  0  0  0
  6 14  1  0  0  0  0
  8  7  1  0  0  0  0
 10  9  2  0  0  0  0
 11 10  1  0  0  0  0
 12 11  1  0  0  0  0
 14 13  2  0  0  0  0
 15 14  1  0  0  0  0
 16 15  1  0  0  0  0
M  END
>  <MODEL>
7

>  <REMARK>
 VINA RESULT:    -4.777     26.785     28.133
 INTER + INTRA:          -5.990
 INTER:                  -5.666
 INTRA:                  -0.324
 UNBOUND:                -0.236
  Name = 53323638
  5 active torsions:
  status: ('A' for Active; 'I' for Inactive)
    1  A    between atoms: O_1  and  C_7
    2  A    between atoms: O_2  and  C_12
    3  A    between atoms: O_4  and  C_13
    4  A    between atoms: CA_9  and  C_12
    5  A    between atoms: CA_11  and  C_13
                            x       y       z     vdW  Elec       q    Type
                         _______ _______ _______ _____ _____    ______ ____

>  <TORSDO>
F 5

$$$$
53323638
 OpenBabel01132600103D

 16 16  0  0  1  0  0  0  0  0999 V2000
   17.3920   -6.3950   -8.2470 N   0  0  0  0  0  0  0  0  0  0  0  0
   15.9110   -5.9540  -10.6860 C   0  0  1  0  0  3  0  0  0  0  0  0
   16.6860   -4.7980  -10.0690 C   0  0  0  0  0  2  0  0  0  0  0  0
   17.0410   -5.0250   -8.6030 C   0  0  1  0  0  3  0  0  0  0  0  0
   16.6470   -7.2630  -10.4640 C   0  0  0  0  0  2  0  0  0  0  0  0
   17.2000   -7.3590   -9.0700 C   0  0  0  0  0  0  0  0  0  0  0  0
   14.5930   -6.0250  -10.1520 O   0  0  0  0  0  0  0  0  0  0  0  0
   13.9890   -5.6300  -10.8030 H   0  0  0  0  0  0  0  0  0  0  0  0
   15.5110   -3.4710   -7.5630 O   0  0  0  0  0  0  0  0  0  0  0  0
   15.9260   -4.6130   -7.6920 C   0  0  0  0  0  0  0  0  0  0  0  0
   15.4370   -5.6830   -7.0200 O   0  0  0  0  0  0  0  0  0  0  0  0
   16.1340   -6.3460   -6.8280 H   0  0  0  0  0  0  0  0  0  0  0  0
   18.4800   -9.3450   -9.1790 O   0  0  0  0  0  0  0  0  0  0  0  0
   17.6140   -8.7140   -8.6150 C   0  0  0  0  0  0  0  0  0  0  0  0
   16.8900   -9.0540   -7.5430 O   0  0  0  0  0  0  0  0  0  0  0  0
   17.1020   -9.9550   -7.2210 H   0  0  0  0  0  0  0  0  0  0  0  0
  2  5  1  0  0  0  0
  2  7  1  1  0  0  0
  2  3  1  0  0  0  0
  3  4  1  0  0  0  0
  4  1  1  0  0  0  0
  4 10  1  1  0  0  0
  5  6  1  0  0  0  0
  6 14  1  0  0  0  0
  6  1  2  0  0  0  0
  8  7  1  0  0  0  0
 10  9  2  0  0  0  0
 10 11  1  0  0  0  0
 11 12  1  0  0  0  0
 13 14  2  0  0  0  0
 14 15  1  0  0  0  0
 15 16  1  0  0  0  0
M  END
>  <MODEL>
8

>  <REMARK>
 VINA RESULT:    -4.705     18.225     19.906
 INTER + INTRA:          -5.904
 INTER:                  -5.702
 INTRA:                  -0.202
 UNBOUND:                -0.236
  Name = 53323638
  5 active torsions:
  status: ('A' for Active; 'I' for Inactive)
    1  A    between atoms: O_1  and  C_7
    2  A    between atoms: O_2  and  C_12
    3  A    between atoms: O_4  and  C_13
    4  A    between atoms: CA_9  and  C_12
    5  A    between atoms: CA_11  and  C_13
                            x       y       z     vdW  Elec       q    Type
                         _______ _______ _______ _____ _____    ______ ____

>  <TORSDO>
F 5

$$$$
53323638
 OpenBabel01132600103D

 16 16  0  0  1  0  0  0  0  0999 V2000
  -17.5610    1.1370    6.6660 N   0  0  0  0  0  0  0  0  0  0  0  0
  -18.1600    3.0400    4.5780 C   0  0  1  0  0  3  0  0  0  0  0  0
  -19.1250    1.8910    4.8340 C   0  0  0  0  0  2  0  0  0  0  0  0
  -18.5000    0.7430    5.6220 C   0  0  1  0  0  3  0  0  0  0  0  0
  -17.5340    3.5050    5.8800 C   0  0  0  0  0  2  0  0  0  0  0  0
  -17.1420    2.3460    6.7520 C   0  0  0  0  0  0  0  0  0  0  0  0
  -17.1520    2.6600    3.6460 O   0  0  0  0  0  0  0  0  0  0  0  0
  -16.2990    2.9750    3.9900 H   0  0  0  0  0  0  0  0  0  0  0  0
  -18.3050   -1.1150    4.0900 O   0  0  0  0  0  0  0  0  0  0  0  0
  -17.7770   -0.2150    4.7270 C   0  0  0  0  0  0  0  0  0  0  0  0
  -16.4480    0.0470    4.7190 O   0  0  0  0  0  0  0  0  0  0  0  0
  -16.1440    0.4250    5.5720 H   0  0  0  0  0  0  0  0  0  0  0  0
  -15.4010    1.8310    8.2690 O   0  0  0  0  0  0  0  0  0  0  0  0
  -16.2030    2.6450    7.8670 C   0  0  0  0  0  0  0  0  0  0  0  0
  -16.4140    3.8960    8.2900 O   0  0  0  0  0  0  0  0  0  0  0  0
  -16.1960    4.0100    9.2400 H   0  0  0  0  0  0  0  0  0  0  0  0
  1  6  2  0  0  0  0
  2  7  1  6  0  0  0
  2  3  1  0  0  0  0
  2  5  1  0  0  0  0
  3  4  1  0  0  0  0
  4 10  1  6  0  0  0
  4  1  1  0  0  0  0
  5  6  1  0  0  0  0
  6 14  1  0  0  0  0
  7  8  1  0  0  0  0
  9 10  2  0  0  0  0
 11 10  1  0  0  0  0
 11 12  1  0  0  0  0
 14 13  2  0  0  0  0
 14 15  1  0  0  0  0
 15 16  1  0  0  0  0
M  END
>  <MODEL>
9

>  <REMARK>
 VINA RESULT:    -4.672     27.266     28.808
 INTER + INTRA:          -5.864
 INTER:                  -5.646
 INTRA:                  -0.218
 UNBOUND:                -0.236
  Name = 53323638
  5 active torsions:
  status: ('A' for Active; 'I' for Inactive)
    1  A    between atoms: O_1  and  C_7
    2  A    between atoms: O_2  and  C_12
    3  A    between atoms: O_4  and  C_13
    4  A    between atoms: CA_9  and  C_12
    5  A    between atoms: CA_11  and  C_13
                            x       y       z     vdW  Elec       q    Type
                         _______ _______ _______ _____ _____    ______ ____

>  <TORSDO>
F 5

$$$$
