53323638
 OpenBabel01132600143D

 16 16  0  0  0  0  0  0  0  0999 V2000
  -20.5450  -14.7450    9.1110 N   0  0  0  0  0  0  0  0  0  0  0  0
  -21.9170  -16.0520    9.7500 C   0  0  0  0  0  0  0  0  0  0  0  0
  -22.0480  -15.5750    8.8810 C   0  0  0  0  0  3  0  0  0  0  0  0
  -21.3620  -14.9210    8.5620 C   0  0  0  0  0  0  0  0  0  0  0  0
  -21.1010  -15.8760   10.2990 C   0  0  0  0  0  3  0  0  0  0  0  0
  -20.4140  -15.2230    9.9800 C   0  0  0  0  0  0  0  0  0  0  0  0
  -22.6040  -16.7060   10.0690 O   0  0  0  0  0  0  0  0  0  0  0  0
  -22.5160  -17.3140    9.9850 H   0  0  0  0  0  0  0  0  0  0  0  0
  -21.4180  -13.4470    7.6540 O   0  0  0  0  0  0  0  0  0  0  0  0
  -21.4920  -14.4440    7.6930 C   0  0  0  0  0  0  0  0  0  0  0  0
  -21.6970  -14.9630    6.8630 O   0  0  0  0  0  0  0  0  0  0  0  0
  -21.3550  -15.4580    6.7150 H   0  0  0  0  0  0  0  0  0  0  0  0
  -19.1400  -15.8010   11.0000 O   0  0  0  0  0  0  0  0  0  0  0  0
  -19.5980  -15.0470   10.5290 C   0  0  0  0  0  0  0  0  0  0  0  0
  -19.2390  -14.1170   10.6080 O   0  0  0  0  0  0  0  0  0  0  0  0
  -19.4940  -13.6570   10.2790 H   0  0  0  0  0  0  0  0  0  0  0  0
  1  6  1  0  0  0  0
  2  7  1  0  0  0  0
  2  5  1  0  0  0  0
  3  2  2  0  0  0  0
  4  3  1  0  0  0  0
  4  1  2  0  0  0  0
  6  5  2  0  0  0  0
  6 14  1  0  0  0  0
  8  7  1  0  0  0  0
  9 10  2  0  0  0  0
 10  4  1  0  0  0  0
 11 10  1  0  0  0  0
 12 11  1  0  0  0  0
 14 15  1  0  0  0  0
 14 13  2  0  0  0  0
 16 15  1  0  0  0  0
M  END
>  <MODEL>
1

>  <REMARK>
 VINA RESULT:    -6.593      0.000      0.000
 INTER + INTRA:          -7.359
 INTER:                  -7.942
 INTRA:                   0.582
 UNBOUND:                 0.582
  Name = 53323638
  5 active torsions:
  status: ('A' for Active; 'I' for Inactive)
    1  A    between atoms: O_1  and  C_7
    2  A    between atoms: O_2  and  C_12
    3  A    between atoms: O_4  and  C_13
    4  A    between atoms: CA_9  and  C_12
    5  A    between atoms: CA_11  and  C_13
                            x       y       z     vdW  Elec       q    Type
                         _______ _______ _______ _____ _____    ______ ____

>  <TORSDO>
F 5

$$$$
53323638
 OpenBabel01132600143D

 16 16  0  0  0  0  0  0  0  0999 V2000
  -20.8400  -14.5860    8.8130 N   0  0  0  0  0  0  0  0  0  0  0  0
  -22.1540  -16.0940    8.8440 C   0  0  0  0  0  0  0  0  0  0  0  0
  -21.4780  -16.0050    9.5760 C   0  0  0  0  0  3  0  0  0  0  0  0
  -20.8210  -15.2510    9.5600 C   0  0  0  0  0  0  0  0  0  0  0  0
  -22.1730  -15.4300    8.0970 C   0  0  0  0  0  3  0  0  0  0  0  0
  -21.5160  -14.6760    8.0820 C   0  0  0  0  0  0  0  0  0  0  0  0
  -22.8110  -16.8480    8.8600 O   0  0  0  0  0  0  0  0  0  0  0  0
  -22.7740  -17.3000    8.4360 H   0  0  0  0  0  0  0  0  0  0  0  0
  -19.1960  -14.9380   10.0710 O   0  0  0  0  0  0  0  0  0  0  0  0
  -20.1450  -15.1620   10.2920 C   0  0  0  0  0  0  0  0  0  0  0  0
  -20.4180  -15.2960   11.2440 O   0  0  0  0  0  0  0  0  0  0  0  0
  -20.6560  -14.8240   11.5680 H   0  0  0  0  0  0  0  0  0  0  0  0
  -21.5180  -14.3250    6.3860 O   0  0  0  0  0  0  0  0  0  0  0  0
  -21.5360  -14.0110    7.3350 C   0  0  0  0  0  0  0  0  0  0  0  0
  -21.5730  -13.0320    7.5370 O   0  0  0  0  0  0  0  0  0  0  0  0
  -21.1290  -12.7700    7.8810 H   0  0  0  0  0  0  0  0  0  0  0  0
  1  4  1  0  0  0  0
  2  7  1  0  0  0  0
  2  3  1  0  0  0  0
  4  3  2  0  0  0  0
  4 10  1  0  0  0  0
  5  2  2  0  0  0  0
  6  5  1  0  0  0  0
  6  1  2  0  0  0  0
  8  7  1  0  0  0  0
  9 10  2  0  0  0  0
 10 11  1  0  0  0  0
 11 12  1  0  0  0  0
 13 14  2  0  0  0  0
 14 15  1  0  0  0  0
 14  6  1  0  0  0  0
 15 16  1  0  0  0  0
M  END
>  <MODEL>
2

>  <REMARK>
 VINA RESULT:    -6.288      0.770      3.032
 INTER + INTRA:          -6.992
 INTER:                  -7.569
 INTRA:                   0.577
 UNBOUND:                 0.582
  Name = 53323638
  5 active torsions:
  status: ('A' for Active; 'I' for Inactive)
    1  A    between atoms: O_1  and  C_7
    2  A    between atoms: O_2  and  C_12
    3  A    between atoms: O_4  and  C_13
    4  A    between atoms: CA_9  and  C_12
    5  A    between atoms: CA_11  and  C_13
                            x       y       z     vdW  Elec       q    Type
                         _______ _______ _______ _____ _____    ______ ____

>  <TORSDO>
F 5

$$$$
53323638
 OpenBabel01132600143D

 16 16  0  0  0  0  0  0  0  0999 V2000
  -20.8240  -16.1500   11.4350 N   0  0  0  0  0  0  0  0  0  0  0  0
  -22.1120  -16.4130    9.9280 C   0  0  0  0  0  0  0  0  0  0  0  0
  -21.3320  -15.7970    9.8170 C   0  0  0  0  0  3  0  0  0  0  0  0
  -20.6880  -15.6660   10.5700 C   0  0  0  0  0  0  0  0  0  0  0  0
  -22.2490  -16.8970   10.7920 C   0  0  0  0  0  3  0  0  0  0  0  0
  -21.6050  -16.7650   11.5460 C   0  0  0  0  0  0  0  0  0  0  0  0
  -22.7560  -16.5440    9.1740 O   0  0  0  0  0  0  0  0  0  0  0  0
  -22.6770  -17.0140    8.7770 H   0  0  0  0  0  0  0  0  0  0  0  0
  -19.4110  -15.0240    9.5920 O   0  0  0  0  0  0  0  0  0  0  0  0
  -19.9070  -15.0500   10.4590 C   0  0  0  0  0  0  0  0  0  0  0  0
  -19.6230  -14.4620   11.2160 O   0  0  0  0  0  0  0  0  0  0  0  0
  -19.1740  -14.0430   11.1320 H   0  0  0  0  0  0  0  0  0  0  0  0
  -21.1640  -18.0320   12.6410 O   0  0  0  0  0  0  0  0  0  0  0  0
  -21.7410  -17.2490   12.4100 C   0  0  0  0  0  0  0  0  0  0  0  0
  -22.4540  -16.9490   13.0440 O   0  0  0  0  0  0  0  0  0  0  0  0
  -22.3800  -17.0290   13.6540 H   0  0  0  0  0  0  0  0  0  0  0  0
  1  6  1  0  0  0  0
  2  5  1  0  0  0  0
  3  2  2  0  0  0  0
  3  4  1  0  0  0  0
  4  1  2  0  0  0  0
  5  6  2  0  0  0  0
  6 14  1  0  0  0  0
  7  2  1  0  0  0  0
  8  7  1  0  0  0  0
  9 10  2  0  0  0  0
 10  4  1  0  0  0  0
 10 11  1  0  0  0  0
 12 11  1  0  0  0  0
 14 13  2  0  0  0  0
 14 15  1  0  0  0  0
 15 16  1  0  0  0  0
M  END
>  <MODEL>
3

>  <REMARK>
 VINA RESULT:    -6.180      1.805      3.002
 INTER + INTRA:          -6.862
 INTER:                  -7.405
 INTRA:                   0.543
 UNBOUND:                 0.582
  Name = 53323638
  5 active torsions:
  status: ('A' for Active; 'I' for Inactive)
    1  A    between atoms: O_1  and  C_7
    2  A    between atoms: O_2  and  C_12
    3  A    between atoms: O_4  and  C_13
    4  A    between atoms: CA_9  and  C_12
    5  A    between atoms: CA_11  and  C_13
                            x       y       z     vdW  Elec       q    Type
                         _______ _______ _______ _____ _____    ______ ____

>  <TORSDO>
F 5

$$$$
53323638
 OpenBabel01132600143D

 16 16  0  0  0  0  0  0  0  0999 V2000
  -20.8380  -16.1630   11.3940 N   0  0  0  0  0  0  0  0  0  0  0  0
  -22.1320  -16.4020    9.8870 C   0  0  0  0  0  0  0  0  0  0  0  0
  -22.2580  -16.9090   10.7400 C   0  0  0  0  0  3  0  0  0  0  0  0
  -21.6110  -16.7890   11.4930 C   0  0  0  0  0  0  0  0  0  0  0  0
  -21.3590  -15.7750    9.7880 C   0  0  0  0  0  3  0  0  0  0  0  0
  -20.7120  -15.6560   10.5410 C   0  0  0  0  0  0  0  0  0  0  0  0
  -22.7790  -16.5210    9.1340 O   0  0  0  0  0  0  0  0  0  0  0  0
  -22.5710  -16.6550    8.5650 H   0  0  0  0  0  0  0  0  0  0  0  0
  -21.2210  -18.1370   12.5080 O   0  0  0  0  0  0  0  0  0  0  0  0
  -21.7380  -17.2970   12.3460 C   0  0  0  0  0  0  0  0  0  0  0  0
  -22.3800  -16.9630   13.0350 O   0  0  0  0  0  0  0  0  0  0  0  0
  -22.2460  -17.0220   13.6380 H   0  0  0  0  0  0  0  0  0  0  0  0
  -19.4620  -14.9590    9.5660 O   0  0  0  0  0  0  0  0  0  0  0  0
  -19.9390  -15.0290   10.4420 C   0  0  0  0  0  0  0  0  0  0  0  0
  -19.6430  -14.4730   11.2180 O   0  0  0  0  0  0  0  0  0  0  0  0
  -19.9250  -13.9340   11.3380 H   0  0  0  0  0  0  0  0  0  0  0  0
  1  4  1  0  0  0  0
  2  3  1  0  0  0  0
  3  4  2  0  0  0  0
  4 10  1  0  0  0  0
  5  2  2  0  0  0  0
  5  6  1  0  0  0  0
  6  1  2  0  0  0  0
  7  2  1  0  0  0  0
  8  7  1  0  0  0  0
 10  9  2  0  0  0  0
 10 11  1  0  0  0  0
 11 12  1  0  0  0  0
 13 14  2  0  0  0  0
 14  6  1  0  0  0  0
 14 15  1  0  0  0  0
 15 16  1  0  0  0  0
M  END
>  <MODEL>
4

>  <REMARK>
 VINA RESULT:    -6.136      1.786      3.379
 INTER + INTRA:          -6.809
 INTER:                  -7.343
 INTRA:                   0.534
 UNBOUND:                 0.582
  Name = 53323638
  5 active torsions:
  status: ('A' for Active; 'I' for Inactive)
    1  A    between atoms: O_1  and  C_7
    2  A    between atoms: O_2  and  C_12
    3  A    between atoms: O_4  and  C_13
    4  A    between atoms: CA_9  and  C_12
    5  A    between atoms: CA_11  and  C_13
                            x       y       z     vdW  Elec       q    Type
                         _______ _______ _______ _____ _____    ______ ____

>  <TORSDO>
F 5

$$$$
53323638
 OpenBabel01132600143D

 16 16  0  0  0  0  0  0  0  0999 V2000
  -21.5610  -15.8580    9.9370 N   0  0  0  0  0  0  0  0  0  0  0  0
  -19.7760  -15.0990   10.4260 C   0  0  0  0  0  0  0  0  0  0  0  0
  -20.2300  -15.7440   11.0410 C   0  0  0  0  0  3  0  0  0  0  0  0
  -21.1230  -16.1230   10.7960 C   0  0  0  0  0  0  0  0  0  0  0  0
  -20.2140  -14.8340    9.5670 C   0  0  0  0  0  3  0  0  0  0  0  0
  -21.1060  -15.2130    9.3230 C   0  0  0  0  0  0  0  0  0  0  0  0
  -18.8840  -14.7190   10.6700 O   0  0  0  0  0  0  0  0  0  0  0  0
  -18.3670  -15.0410   10.5510 H   0  0  0  0  0  0  0  0  0  0  0  0
  -21.8350  -17.6760   11.0810 O   0  0  0  0  0  0  0  0  0  0  0  0
  -21.5770  -16.7680   11.4110 C   0  0  0  0  0  0  0  0  0  0  0  0
  -21.7730  -16.5050   12.3550 O   0  0  0  0  0  0  0  0  0  0  0  0
  -22.3490  -16.3450   12.5190 H   0  0  0  0  0  0  0  0  0  0  0  0
  -21.2590  -14.1120    7.9940 O   0  0  0  0  0  0  0  0  0  0  0  0
  -21.5440  -14.9480    8.4640 C   0  0  0  0  0  0  0  0  0  0  0  0
  -22.2670  -15.5180    8.0740 O   0  0  0  0  0  0  0  0  0  0  0  0
  -22.3280  -16.1080    8.2550 H   0  0  0  0  0  0  0  0  0  0  0  0
  1  4  1  0  0  0  0
  2  7  1  0  0  0  0
  2  3  1  0  0  0  0
  4  3  2  0  0  0  0
  4 10  1  0  0  0  0
  5  2  2  0  0  0  0
  6  5  1  0  0  0  0
  6  1  2  0  0  0  0
  8  7  1  0  0  0  0
  9 10  2  0  0  0  0
 10 11  1  0  0  0  0
 11 12  1  0  0  0  0
 13 14  2  0  0  0  0
 14  6  1  0  0  0  0
 15 16  1  0  0  0  0
 15 14  1  0  0  0  0
M  END
>  <MODEL>
5

>  <REMARK>
 VINA RESULT:    -6.127      1.226      3.600
 INTER + INTRA:          -6.798
 INTER:                  -7.418
 INTRA:                   0.620
 UNBOUND:                 0.582
  Name = 53323638
  5 active torsions:
  status: ('A' for Active; 'I' for Inactive)
    1  A    between atoms: O_1  and  C_7
    2  A    between atoms: O_2  and  C_12
    3  A    between atoms: O_4  and  C_13
    4  A    between atoms: CA_9  and  C_12
    5  A    between atoms: CA_11  and  C_13
                            x       y       z     vdW  Elec       q    Type
                         _______ _______ _______ _____ _____    ______ ____

>  <TORSDO>
F 5

$$$$
53323638
 OpenBabel01132600143D

 16 16  0  0  0  0  0  0  0  0999 V2000
  -21.5820  -15.8350    9.9160 N   0  0  0  0  0  0  0  0  0  0  0  0
  -19.7830  -15.1000   10.3900 C   0  0  0  0  0  0  0  0  0  0  0  0
  -20.2230  -14.8320    9.5320 C   0  0  0  0  0  3  0  0  0  0  0  0
  -21.1220  -15.2000    9.2950 C   0  0  0  0  0  0  0  0  0  0  0  0
  -20.2430  -15.7340   11.0100 C   0  0  0  0  0  3  0  0  0  0  0  0
  -21.1430  -16.1020   10.7740 C   0  0  0  0  0  0  0  0  0  0  0  0
  -18.8840  -14.7320   10.6260 O   0  0  0  0  0  0  0  0  0  0  0  0
  -18.5520  -14.4260   10.2010 H   0  0  0  0  0  0  0  0  0  0  0  0
  -21.2960  -14.0820    7.9830 O   0  0  0  0  0  0  0  0  0  0  0  0
  -21.5610  -14.9330    8.4380 C   0  0  0  0  0  0  0  0  0  0  0  0
  -22.2660  -15.5160    8.0340 O   0  0  0  0  0  0  0  0  0  0  0  0
  -22.3490  -16.0930    8.2440 H   0  0  0  0  0  0  0  0  0  0  0  0
  -21.8820  -17.6400   11.0690 O   0  0  0  0  0  0  0  0  0  0  0  0
  -21.6030  -16.7370   11.3940 C   0  0  0  0  0  0  0  0  0  0  0  0
  -21.7840  -16.4680   12.3400 O   0  0  0  0  0  0  0  0  0  0  0  0
  -21.3370  -16.5170   12.7680 H   0  0  0  0  0  0  0  0  0  0  0  0
  1  6  1  0  0  0  0
  2  7  1  0  0  0  0
  2  5  1  0  0  0  0
  3  2  2  0  0  0  0
  4  3  1  0  0  0  0
  4  1  2  0  0  0  0
  6  5  2  0  0  0  0
  6 14  1  0  0  0  0
  8  7  1  0  0  0  0
  9 10  2  0  0  0  0
 10  4  1  0  0  0  0
 11 12  1  0  0  0  0
 11 10  1  0  0  0  0
 13 14  2  0  0  0  0
 14 15  1  0  0  0  0
 15 16  1  0  0  0  0
M  END
>  <MODEL>
6

>  <REMARK>
 VINA RESULT:    -6.126      1.209      2.351
 INTER + INTRA:          -6.796
 INTER:                  -7.413
 INTRA:                   0.617
 UNBOUND:                 0.582
  Name = 53323638
  5 active torsions:
  status: ('A' for Active; 'I' for Inactive)
    1  A    between atoms: O_1  and  C_7
    2  A    between atoms: O_2  and  C_12
    3  A    between atoms: O_4  and  C_13
    4  A    between atoms: CA_9  and  C_12
    5  A    between atoms: CA_11  and  C_13
                            x       y       z     vdW  Elec       q    Type
                         _______ _______ _______ _____ _____    ______ ____

>  <TORSDO>
F 5

$$$$
53323638
 OpenBabel01132600143D

 16 16  0  0  0  0  0  0  0  0999 V2000
    1.5200    1.8680    0.5050 N   0  0  0  0  0  0  0  0  0  0  0  0
    0.6350    0.2460   -0.2610 C   0  0  0  0  0  0  0  0  0  0  0  0
    1.6170    0.3880   -0.3910 C   0  0  0  0  0  3  0  0  0  0  0  0
    2.0590    1.1990   -0.0080 C   0  0  0  0  0  0  0  0  0  0  0  0
    0.0960    0.9150    0.2510 C   0  0  0  0  0  3  0  0  0  0  0  0
    0.5390    1.7260    0.6340 C   0  0  0  0  0  0  0  0  0  0  0  0
    0.1930   -0.5650   -0.6440 O   0  0  0  0  0  0  0  0  0  0  0  0
    0.3010   -0.7290   -1.2330 H   0  0  0  0  0  0  0  0  0  0  0  0
    3.4840    1.0320   -0.9780 O   0  0  0  0  0  0  0  0  0  0  0  0
    3.0400    1.3420   -0.1370 C   0  0  0  0  0  0  0  0  0  0  0  0
    3.5780    1.7930    0.5750 O   0  0  0  0  0  0  0  0  0  0  0  0
    4.1800    1.6600    0.6400 H   0  0  0  0  0  0  0  0  0  0  0  0
   -0.2110    2.2330    2.1110 O   0  0  0  0  0  0  0  0  0  0  0  0
   -0.0000    2.3940    1.1460 C   0  0  0  0  0  0  0  0  0  0  0  0
   -0.3280    3.2240    0.6950 O   0  0  0  0  0  0  0  0  0  0  0  0
   -0.1430    3.7800    0.8960 H   0  0  0  0  0  0  0  0  0  0  0  0
  1  6  1  0  0  0  0
  2  5  1  0  0  0  0
  3  2  2  0  0  0  0
  3  4  1  0  0  0  0
  4  1  2  0  0  0  0
  5  6  2  0  0  0  0
  6 14  1  0  0  0  0
  7  2  1  0  0  0  0
  8  7  1  0  0  0  0
  9 10  2  0  0  0  0
 10  4  1  0  0  0  0
 10 11  1  0  0  0  0
 11 12  1  0  0  0  0
 14 13  2  0  0  0  0
 15 16  1  0  0  0  0
 15 14  1  0  0  0  0
M  END
>  <MODEL>
7

>  <REMARK>
 VINA RESULT:    -6.027     28.220     29.229
 INTER + INTRA:          -6.678
 INTER:                  -7.231
 INTRA:                   0.553
 UNBOUND:                 0.582
  Name = 53323638
  5 active torsions:
  status: ('A' for Active; 'I' for Inactive)
    1  A    between atoms: O_1  and  C_7
    2  A    between atoms: O_2  and  C_12
    3  A    between atoms: O_4  and  C_13
    4  A    between atoms: CA_9  and  C_12
    5  A    between atoms: CA_11  and  C_13
                            x       y       z     vdW  Elec       q    Type
                         _______ _______ _______ _____ _____    ______ ____

>  <TORSDO>
F 5

$$$$
53323638
 OpenBabel01132600143D

 16 16  0  0  0  0  0  0  0  0999 V2000
    1.5290    1.8750    0.5040 N   0  0  0  0  0  0  0  0  0  0  0  0
    0.6480    0.2490   -0.2580 C   0  0  0  0  0  0  0  0  0  0  0  0
    0.1060    0.9210    0.2470 C   0  0  0  0  0  3  0  0  0  0  0  0
    0.5460    1.7340    0.6280 C   0  0  0  0  0  0  0  0  0  0  0  0
    1.6300    0.3900   -0.3820 C   0  0  0  0  0  3  0  0  0  0  0  0
    2.0710    1.2040   -0.0010 C   0  0  0  0  0  0  0  0  0  0  0  0
    0.2080   -0.5640   -0.6390 O   0  0  0  0  0  0  0  0  0  0  0  0
   -0.2720   -0.5030   -1.0270 H   0  0  0  0  0  0  0  0  0  0  0  0
   -0.1830    2.2690    2.1050 O   0  0  0  0  0  0  0  0  0  0  0  0
    0.0040    2.4060    1.1320 C   0  0  0  0  0  0  0  0  0  0  0  0
   -0.3500    3.2160    0.6640 O   0  0  0  0  0  0  0  0  0  0  0  0
   -0.8900    3.4640    0.8410 H   0  0  0  0  0  0  0  0  0  0  0  0
    3.5020    1.0280   -0.9600 O   0  0  0  0  0  0  0  0  0  0  0  0
    3.0530    1.3450   -0.1240 C   0  0  0  0  0  0  0  0  0  0  0  0
    3.5860    1.8030    0.5870 O   0  0  0  0  0  0  0  0  0  0  0  0
    3.2970    2.0670    1.0680 H   0  0  0  0  0  0  0  0  0  0  0  0
  1  4  1  0  0  0  0
  2  3  1  0  0  0  0
  3  4  2  0  0  0  0
  4 10  1  0  0  0  0
  5  2  2  0  0  0  0
  5  6  1  0  0  0  0
  6  1  2  0  0  0  0
  7  2  1  0  0  0  0
  8  7  1  0  0  0  0
 10  9  2  0  0  0  0
 11 12  1  0  0  0  0
 11 10  1  0  0  0  0
 13 14  2  0  0  0  0
 14  6  1  0  0  0  0
 14 15  1  0  0  0  0
 15 16  1  0  0  0  0
M  END
>  <MODEL>
8

>  <REMARK>
 VINA RESULT:    -6.022     28.231     29.204
 INTER + INTRA:          -6.672
 INTER:                  -7.223
 INTRA:                   0.551
 UNBOUND:                 0.582
  Name = 53323638
  5 active torsions:
  status: ('A' for Active; 'I' for Inactive)
    1  A    between atoms: O_1  and  C_7
    2  A    between atoms: O_2  and  C_12
    3  A    between atoms: O_4  and  C_13
    4  A    between atoms: CA_9  and  C_12
    5  A    between atoms: CA_11  and  C_13
                            x       y       z     vdW  Elec       q    Type
                         _______ _______ _______ _____ _____    ______ ____

>  <TORSDO>
F 5

$$$$
53323638
 OpenBabel01132600143D

 16 16  0  0  0  0  0  0  0  0999 V2000
    0.3690   -8.6550   16.2430 N   0  0  0  0  0  0  0  0  0  0  0  0
    0.0010   -6.9160   15.3240 C   0  0  0  0  0  0  0  0  0  0  0  0
   -0.7270   -7.5960   15.4180 C   0  0  0  0  0  3  0  0  0  0  0  0
   -0.5430   -8.4650   15.8770 C   0  0  0  0  0  0  0  0  0  0  0  0
    0.9120   -7.1060   15.6900 C   0  0  0  0  0  3  0  0  0  0  0  0
    1.0960   -7.9750   16.1490 C   0  0  0  0  0  0  0  0  0  0  0  0
   -0.1830   -6.0470   14.8650 O   0  0  0  0  0  0  0  0  0  0  0  0
   -0.4990   -6.0390   14.3310 H   0  0  0  0  0  0  0  0  0  0  0  0
   -1.6270   -9.3740   16.8760 O   0  0  0  0  0  0  0  0  0  0  0  0
   -1.2700   -9.1450   15.9700 C   0  0  0  0  0  0  0  0  0  0  0  0
   -1.6410   -9.5960   15.1580 O   0  0  0  0  0  0  0  0  0  0  0  0
   -2.2500   -9.7040   15.1150 H   0  0  0  0  0  0  0  0  0  0  0  0
    2.7010   -8.5890   15.9340 O   0  0  0  0  0  0  0  0  0  0  0  0
    2.0070   -8.1640   16.5150 C   0  0  0  0  0  0  0  0  0  0  0  0
    2.2250   -7.9280   17.4620 O   0  0  0  0  0  0  0  0  0  0  0  0
    2.3400   -8.3760   17.8750 H   0  0  0  0  0  0  0  0  0  0  0  0
  2  3  2  0  0  0  0
  2  5  1  0  0  0  0
  3  4  1  0  0  0  0
  4 10  1  0  0  0  0
  4  1  2  0  0  0  0
  5  6  2  0  0  0  0
  6  1  1  0  0  0  0
  6 14  1  0  0  0  0
  7  2  1  0  0  0  0
  8  7  1  0  0  0  0
 10  9  2  0  0  0  0
 11 10  1  0  0  0  0
 12 11  1  0  0  0  0
 13 14  2  0  0  0  0
 14 15  1  0  0  0  0
 15 16  1  0  0  0  0
M  END
>  <MODEL>
9

>  <REMARK>
 VINA RESULT:    -5.893     21.653     23.437
 INTER + INTRA:          -6.517
 INTER:                  -6.969
 INTRA:                   0.452
 UNBOUND:                 0.582
  Name = 53323638
  5 active torsions:
  status: ('A' for Active; 'I' for Inactive)
    1  A    between atoms: O_1  and  C_7
    2  A    between atoms: O_2  and  C_12
    3  A    between atoms: O_4  and  C_13
    4  A    between atoms: CA_9  and  C_12
    5  A    between atoms: CA_11  and  C_13
                            x       y       z     vdW  Elec       q    Type
                         _______ _______ _______ _____ _____    ______ ____

>  <TORSDO>
F 5

$$$$
