53323638
     RDKit          3D

 13 13  0  0  1  0  0  0  0  0999 V2000
   -3.0776   14.0637    0.4985 O   0  0  0  0  0  0  0  0  0  0  0  0
   -1.5327    9.8380   -2.0318 O   0  0  0  0  0  0  0  0  0  0  0  0
    0.0974   11.2824   -2.6817 O   0  0  0  0  0  0  0  0  0  0  0  0
   -6.5343   12.8380   -0.6469 O   0  0  0  0  0  0  0  0  0  0  0  0
   -6.1807   11.1722   -2.1101 O   0  0  0  0  0  0  0  0  0  0  0  0
   -3.3571   11.7564   -1.9750 N   0  0  0  0  0  0  0  0  0  0  0  0
   -2.7008   14.2040   -0.8415 C   0  0  1  0  0  0  0  0  0  0  0  0
   -1.6018   13.2316   -1.1118 C   0  0  0  0  0  0  0  0  0  0  0  0
   -2.0167   12.2680   -2.1881 C   0  0  1  0  0  0  0  0  0  0  0  0
   -3.9169   14.0284   -1.7191 C   0  0  0  0  0  0  0  0  0  0  0  0
   -4.3071   12.5967   -1.7432 C   0  0  0  0  0  0  0  0  0  0  0  0
   -1.0991   11.1208   -2.3144 C   0  0  0  0  0  0  0  0  0  0  0  0
   -5.6987   12.1709   -1.5149 C   0  0  0  0  0  0  0  0  0  0  0  0
  7  1  1  1
  2 12  1  0
  3 12  2  0
  4 13  1  0
  5 13  2  0
  6  9  1  0
  6 11  2  0
  7  8  1  0
  7 10  1  0
  8  9  1  0
  9 12  1  1
 10 11  1  0
 11 13  1  0
M  END
>  <PUBCHEM_COMPOUND_CID>  (1) 
53323638

>  <PUBCHEM_CONFORMER_RMSD>  (1) 
0.6

>  <PUBCHEM_CONFORMER_DIVERSEORDER>  (1) 
2
4
8
6
1
7
3
5

>  <PUBCHEM_MMFF94_PARTIAL_CHARGES>  (1) 
15
1 -0.68
10 0.06
11 0.39
12 0.66
13 0.72
2 -0.65
20 0.4
21 0.5
22 0.5
3 -0.57
4 -0.65
5 -0.57
6 -0.7
7 0.28
9 0.31

>  <PUBCHEM_EFFECTIVE_ROTOR_COUNT>  (1) 
2.8

>  <PUBCHEM_PHARMACOPHORE_FEATURES>  (1) 
10
1 1 acceptor
1 1 donor
1 2 acceptor
1 3 acceptor
1 4 acceptor
1 5 acceptor
1 6 acceptor
3 2 3 12 anion
3 4 5 13 anion
6 6 7 8 9 10 11 rings

>  <PUBCHEM_HEAVY_ATOM_COUNT>  (1) 
13

>  <PUBCHEM_ATOM_DEF_STEREO_COUNT>  (1) 
2

>  <PUBCHEM_ATOM_UDEF_STEREO_COUNT>  (1) 
0

>  <PUBCHEM_BOND_DEF_STEREO_COUNT>  (1) 
0

>  <PUBCHEM_BOND_UDEF_STEREO_COUNT>  (1) 
0

>  <PUBCHEM_ISOTOPIC_ATOM_COUNT>  (1) 
0

>  <PUBCHEM_COMPONENT_COUNT>  (1) 
1

>  <PUBCHEM_CACTVS_TAUTO_COUNT>  (1) 
1

>  <PUBCHEM_CONFORMER_ID>  (1) 
032DA77600000002

>  <PUBCHEM_MMFF94_ENERGY>  (1) 
25.0682

>  <PUBCHEM_FEATURE_SELFOVERLAP>  (1) 
50.866

>  <PUBCHEM_SHAPE_FINGERPRINT>  (1) 
12423570 1 15294921184662801423
12491281 212 18272658895921095985
12932764 1 15864342597558756564
13024252 1 12613016314904622095
13764800 53 18336551632723131960
15775835 57 18268433438529139477
16945 1 18200301126666375431
19837323 101 18341893030056523118
19973954 147 18199184169266785636
20653085 51 17632304453517766576
21028194 46 18408603630297282356
21040471 1 18334294253773263942
21524375 3 18338514123439382335
22802520 49 18202014234855316054
23235685 24 18260545610661892925
23419403 2 16680015500034210023
23559900 14 18341618097591410278
2748010 2 18266459995635319164
276578 36 18263934254043499889
369184 2 17845936358923133462
5084963 1 18188493441336361055
528862 383 17897155832292206155
63268167 104 18193834842896056789
81228 2 18045218499050704243

>  <PUBCHEM_SHAPE_MULTIPOLES>  (1) 
233.21
4.05
1.88
1.03
1.57
0.45
-0.14
-1.78
0.18
-0.46
-0.5
-0.18
0.13
0.13

>  <PUBCHEM_SHAPE_SELFOVERLAP>  (1) 
480.145

>  <PUBCHEM_SHAPE_VOLUME>  (1) 
131.4

>  <PUBCHEM_COORDINATE_TYPE>  (1) 
2
5
10

$$$$
