
     RDKit          3D

 13 13  0  0  0  0  0  0  0  0999 V2000
    6.1012   16.8792   -6.4526 C   0  0  0  0  0  0  0  0  0  0  0  0
    4.8753   16.0502   -6.6308 C   0  0  1  0  0  0  0  0  0  0  0  0
    4.7667   14.8713   -5.7284 C   0  0  0  0  0  0  0  0  0  0  0  0
    5.6266   14.9272   -4.5364 C   0  0  0  0  0  0  0  0  0  0  0  0
    6.7823   15.4899   -4.5805 N   0  0  0  0  0  0  0  0  0  0  0  0
    7.2076   16.0675   -5.8477 C   0  0  2  0  0  0  0  0  0  0  0  0
    8.4530   16.8444   -5.6930 C   0  0  0  0  0  0  0  0  0  0  0  0
    8.9772   17.3673   -6.6897 O   0  0  0  0  0  0  0  0  0  0  0  0
    9.0014   16.9652   -4.4251 O   0  0  0  0  0  0  0  0  0  0  0  0
    5.1612   14.3383   -3.2964 C   0  0  0  0  0  0  0  0  0  0  0  0
    5.9844   14.1135   -2.3753 O   0  0  0  0  0  0  0  0  0  0  0  0
    3.8171   14.0134   -3.0990 O   0  0  0  0  0  0  0  0  0  0  0  0
    3.7375   16.8803   -6.4999 O   0  0  0  0  0  0  0  0  0  0  0  0
  1  2  1  0
  2  3  1  0
  3  4  1  0
  4  5  2  0
  5  6  1  0
  6  7  1  1
  7  8  2  0
  7  9  1  0
  4 10  1  0
 10 11  2  0
 10 12  1  0
  2 13  1  1
  6  1  1  0
M  END
$$$$
