
     RDKit          3D

 13 13  0  0  0  0  0  0  0  0999 V2000
   -9.2200   -4.9210   -7.4290 O   0  0  0  0  0  0  0  0  0  0  0  0
   -8.6940   -4.1890   -8.2580 C   0  0  0  0  0  0  0  0  0  0  0  0
   -7.6930   -4.5290   -8.9020 O   0  0  0  0  0  0  0  0  0  0  0  0
   -9.2820   -2.8260   -8.4970 C   0  0  0  0  0  0  0  0  0  0  0  0
   -8.7390   -2.0290   -9.4160 N   0  0  0  0  0  0  0  0  0  0  0  0
   -9.2780   -0.7260   -9.7900 C   0  0  2  0  0  0  0  0  0  0  0  0
   -8.1080    0.2320  -10.1040 C   0  0  0  0  0  0  0  0  0  0  0  0
   -8.3480    1.3780  -10.5020 O   0  0  0  0  0  0  0  0  0  0  0  0
   -6.9650   -0.1800   -9.9270 O   0  0  0  0  0  0  0  0  0  0  0  0
  -10.1870   -0.1510   -8.7330 C   0  0  0  0  0  0  0  0  0  0  0  0
  -11.1520   -1.1830   -8.2230 C   0  0  2  0  0  0  0  0  0  0  0  0
  -11.9800   -0.6330   -7.2120 O   0  0  0  0  0  0  0  0  0  0  0  0
  -10.4400   -2.3790   -7.6780 C   0  0  0  0  0  0  0  0  0  0  0  0
  1  2  1  0
  2  3  1  0
  2  4  1  0
  4  5  1  0
  4 13  1  0
  5  6  1  0
  6  7  1  1
  6 10  1  0
  7  8  1  0
  7  9  1  0
 10 11  1  0
 11 12  1  1
 11 13  1  0
M  END
$$$$
