
     RDKit          3D

 13 13  0  0  0  0  0  0  0  0999 V2000
   -2.8650   -0.4270   -2.0620 O   0  0  0  0  0  0  0  0  0  0  0  0
   -1.8630    0.1020   -1.5780 C   0  0  0  0  0  0  0  0  0  0  0  0
   -1.7430    1.3260   -1.5190 O   0  0  0  0  0  0  0  0  0  0  0  0
   -0.7590   -0.7780   -1.0460 C   0  0  0  0  0  0  0  0  0  0  0  0
   -0.8880   -2.0970   -1.0890 N   0  0  0  0  0  0  0  0  0  0  0  0
    0.1780   -3.0020   -0.7200 C   0  0  2  0  0  0  0  0  0  0  0  0
   -0.3910   -4.3460   -0.2120 C   0  0  0  0  0  0  0  0  0  0  0  0
    0.0210   -4.8330    0.8370 O   0  0  0  0  0  0  0  0  0  0  0  0
   -1.2070   -4.9250   -0.9040 O   0  0  0  0  0  0  0  0  0  0  0  0
    1.1620   -2.3750    0.2370 C   0  0  0  0  0  0  0  0  0  0  0  0
    1.5990   -1.0470   -0.2690 C   0  0  2  0  0  0  0  0  0  0  0  0
    2.5380   -0.4680    0.6150 O   0  0  0  0  0  0  0  0  0  0  0  0
    0.4360   -0.1310   -0.4570 C   0  0  0  0  0  0  0  0  0  0  0  0
  1  2  1  0
  2  3  1  0
  2  4  1  0
  4  5  1  0
  4 13  1  0
  5  6  1  0
  6  7  1  1
  6 10  1  0
  7  8  1  0
  7  9  1  0
 10 11  1  0
 11 12  1  1
 11 13  1  0
M  END
$$$$
